Data/networks/opendssNetworks/network_2/Feeder_4/Loads.txt
New Load.LOAD1 Phases=1 Bus1=196.1 kV=0.23 kW=1 PF=0.95 Daily=Shape_1
New Load.LOAD2 Phases=1 Bus1=227.2 kV=0.23 kW=1 PF=0.95 Daily=Shape_2
New Load.LOAD3 Phases=1 Bus1=239.1 kV=0.23 kW=1 PF=0.95 Daily=Shape_3
New Load.LOAD4 Phases=1 Bus1=240.2 kV=0.23 kW=1 PF=0.95 Daily=Shape_4
New Load.LOAD5 Phases=1 Bus1=250.3 kV=0.23 kW=1 PF=0.95 Daily=Shape_5
New Load.LOAD6 Phases=1 Bus1=251.1 kV=0.23 kW=1 PF=0.95 Daily=Shape_6
New Load.LOAD7 Phases=1 Bus1=253.3 kV=0.23 kW=1 PF=0.95 Daily=Shape_7
New Load.LOAD8 Phases=1 Bus1=262.3 kV=0.23 kW=1 PF=0.95 Daily=Shape_8
New Load.LOAD9 Phases=1 Bus1=263.3 kV=0.23 kW=1 PF=0.95 Daily=Shape_9
New Load.LOAD10 Phases=1 Bus1=282.2 kV=0.23 kW=1 PF=0.95 Daily=Shape_10
New Load.LOAD11 Phases=1 Bus1=283.3 kV=0.23 kW=1 PF=0.95 Daily=Shape_11
New Load.LOAD12 Phases=1 Bus1=293.2 kV=0.23 kW=1 PF=0.95 Daily=Shape_12
New Load.LOAD13 Phases=1 Bus1=324.3 kV=0.23 kW=1 PF=0.95 Daily=Shape_13
New Load.LOAD14 Phases=1 Bus1=332.2 kV=0.23 kW=1 PF=0.95 Daily=Shape_14
New Load.LOAD15 Phases=1 Bus1=345.1 kV=0.23 kW=1 PF=0.95 Daily=Shape_15
New Load.LOAD16 Phases=1 Bus1=494.3 kV=0.23 kW=1 PF=0.95 Daily=Shape_16
New Load.LOAD17 Phases=1 Bus1=509.1 kV=0.23 kW=1 PF=0.95 Daily=Shape_17
New Load.LOAD18 Phases=1 Bus1=526.2 kV=0.23 kW=1 PF=0.95 Daily=Shape_18
New Load.LOAD19 Phases=1 Bus1=540.1 kV=0.23 kW=1 PF=0.95 Daily=Shape_19
New Load.LOAD20 Phases=1 Bus1=546.3 kV=0.23 kW=1 PF=0.95 Daily=Shape_20
New Load.LOAD21 Phases=1 Bus1=556.3 kV=0.23 kW=1 PF=0.95 Daily=Shape_21
New Load.LOAD22 Phases=1 Bus1=566.3 kV=0.23 kW=1 PF=0.95 Daily=Shape_22
New Load.LOAD23 Phases=1 Bus1=572.1 kV=0.23 kW=1 PF=0.95 Daily=Shape_23
New Load.LOAD24 Phases=1 Bus1=579.2 kV=0.23 kW=1 PF=0.95 Daily=Shape_24
New Load.LOAD25 Phases=1 Bus1=595.2 kV=0.23 kW=1 PF=0.95 Daily=Shape_25
New Load.LOAD26 Phases=1 Bus1=613.1 kV=0.23 kW=1 PF=0.95 Daily=Shape_26
New Load.LOAD27 Phases=1 Bus1=657.2 kV=0.23 kW=1 PF=0.95 Daily=Shape_27
New Load.LOAD28 Phases=1 Bus1=675.3 kV=0.23 kW=1 PF=0.95 Daily=Shape_28
New Load.LOAD29 Phases=1 Bus1=681.2 kV=0.23 kW=1 PF=0.95 Daily=Shape_29
New Load.LOAD30 Phases=1 Bus1=690.1 kV=0.23 kW=1 PF=0.95 Daily=Shape_30
New Load.LOAD31 Phases=1 Bus1=796.2 kV=0.23 kW=1 PF=0.95 Daily=Shape_31
New Load.LOAD32 Phases=1 Bus1=810.3 kV=0.23 kW=1 PF=0.95 Daily=Shape_32
New Load.LOAD33 Phases=1 Bus1=812.2 kV=0.23 kW=1 PF=0.95 Daily=Shape_33
New Load.LOAD34 Phases=1 Bus1=821.1 kV=0.23 kW=1 PF=0.95 Daily=Shape_34
New Load.LOAD35 Phases=1 Bus1=828.2 kV=0.23 kW=1 PF=0.95 Daily=Shape_35
New Load.LOAD36 Phases=1 Bus1=842.3 kV=0.23 kW=1 PF=0.95 Daily=Shape_36
New Load.LOAD37 Phases=1 Bus1=843.2 kV=0.23 kW=1 PF=0.95 Daily=Shape_37
New Load.LOAD38 Phases=1 Bus1=851.1 kV=0.23 kW=1 PF=0.95 Daily=Shape_38
New Load.LOAD39 Phases=1 Bus1=858.3 kV=0.23 kW=1 PF=0.95 Daily=Shape_39
New Load.LOAD40 Phases=1 Bus1=867.2 kV=0.23 kW=1 PF=0.95 Daily=Shape_40
New Load.LOAD41 Phases=1 Bus1=887.3 kV=0.23 kW=1 PF=0.95 Daily=Shape_41
New Load.LOAD42 Phases=1 Bus1=894.2 kV=0.23 kW=1 PF=0.95 Daily=Shape_42
New Load.LOAD43 Phases=1 Bus1=908.1 kV=0.23 kW=1 PF=0.95 Daily=Shape_43
New Load.LOAD44 Phases=1 Bus1=911.2 kV=0.23 kW=1 PF=0.95 Daily=Shape_44
New Load.LOAD45 Phases=1 Bus1=915.2 kV=0.23 kW=1 PF=0.95 Daily=Shape_45
New Load.LOAD46 Phases=1 Bus1=917.1 kV=0.23 kW=1 PF=0.95 Daily=Shape_46
New Load.LOAD47 Phases=1 Bus1=939.3 kV=0.23 kW=1 PF=0.95 Daily=Shape_47
New Load.LOAD48 Phases=1 Bus1=942.2 kV=0.23 kW=1 PF=0.95 Daily=Shape_48
New Load.LOAD49 Phases=1 Bus1=943.1 kV=0.23 kW=1 PF=0.95 Daily=Shape_49
New Load.LOAD50 Phases=1 Bus1=991.2 kV=0.23 kW=1 PF=0.95 Daily=Shape_50
New Load.LOAD51 Phases=1 Bus1=993.1 kV=0.23 kW=1 PF=0.95 Daily=Shape_51
New Load.LOAD52 Phases=1 Bus1=1015.1 kV=0.23 kW=1 PF=0.95 Daily=Shape_52
New Load.LOAD53 Phases=1 Bus1=1020.1 kV=0.23 kW=1 PF=0.95 Daily=Shape_53
New Load.LOAD54 Phases=1 Bus1=1022.3 kV=0.23 kW=1 PF=0.95 Daily=Shape_54
New Load.LOAD55 Phases=1 Bus1=1043.1 kV=0.23 kW=1 PF=0.95 Daily=Shape_55
New Load.LOAD56 Phases=1 Bus1=1047.1 kV=0.23 kW=1 PF=0.95 Daily=Shape_56
New Load.LOAD57 Phases=1 Bus1=1049.3 kV=0.23 kW=1 PF=0.95 Daily=Shape_57
New Load.LOAD58 Phases=1 Bus1=1061.1 kV=0.23 kW=1 PF=0.95 Daily=Shape_58
New Load.LOAD59 Phases=1 Bus1=1067.3 kV=0.23 kW=1 PF=0.95 Daily=Shape_59
New Load.LOAD60 Phases=1 Bus1=1091.3 kV=0.23 kW=1 PF=0.95 Daily=Shape_60
New Load.LOAD61 Phases=1 Bus1=1115.2 kV=0.23 kW=1 PF=0.95 Daily=Shape_61
New Load.LOAD62 Phases=1 Bus1=1134.2 kV=0.23 kW=1 PF=0.95 Daily=Shape_62
New Load.LOAD63 Phases=1 Bus1=1142.2 kV=0.23 kW=1 PF=0.95 Daily=Shape_63
New Load.LOAD64 Phases=1 Bus1=1160.3 kV=0.23 kW=1 PF=0.95 Daily=Shape_64
New Load.LOAD65 Phases=1 Bus1=1173.1 kV=0.23 kW=1 PF=0.95 Daily=Shape_65
New Load.LOAD66 Phases=1 Bus1=1188.3 kV=0.23 kW=1 PF=0.95 Daily=Shape_66
New Load.LOAD67 Phases=1 Bus1=1193.3 kV=0.23 kW=1 PF=0.95 Daily=Shape_67
New Load.LOAD68 Phases=1 Bus1=1195.1 kV=0.23 kW=1 PF=0.95 Daily=Shape_68
New Load.LOAD69 Phases=1 Bus1=1200.1 kV=0.23 kW=1 PF=0.95 Daily=Shape_69
New Load.LOAD70 Phases=1 Bus1=1202.1 kV=0.23 kW=1 PF=0.95 Daily=Shape_70
New Load.LOAD71 Phases=1 Bus1=1219.3 kV=0.23 kW=1 PF=0.95 Daily=Shape_71
New Load.LOAD72 Phases=1 Bus1=1220.1 kV=0.23 kW=1 PF=0.95 Daily=Shape_72
New Load.LOAD73 Phases=1 Bus1=1225.1 kV=0.23 kW=1 PF=0.95 Daily=Shape_73
New Load.LOAD74 Phases=1 Bus1=1240.2 kV=0.23 kW=1 PF=0.95 Daily=Shape_74
New Load.LOAD75 Phases=1 Bus1=1241.1 kV=0.23 kW=1 PF=0.95 Daily=Shape_75
New Load.LOAD76 Phases=1 Bus1=1263.3 kV=0.23 kW=1 PF=0.95 Daily=Shape_76
New Load.LOAD77 Phases=1 Bus1=1264.2 kV=0.23 kW=1 PF=0.95 Daily=Shape_77
New Load.LOAD78 Phases=1 Bus1=1276.2 kV=0.23 kW=1 PF=0.95 Daily=Shape_78
New Load.LOAD79 Phases=1 Bus1=1286.3 kV=0.23 kW=1 PF=0.95 Daily=Shape_79
New Load.LOAD80 Phases=1 Bus1=1298.2 kV=0.23 kW=1 PF=0.95 Daily=Shape_80
New Load.LOAD81 Phases=1 Bus1=1308.1 kV=0.23 kW=1 PF=0.95 Daily=Shape_81
New Load.LOAD82 Phases=1 Bus1=1327.1 kV=0.23 kW=1 PF=0.95 Daily=Shape_82
New Load.LOAD83 Phases=1 Bus1=1348.2 kV=0.23 kW=1 PF=0.95 Daily=Shape_83
New Load.LOAD84 Phases=1 Bus1=1383.3 kV=0.23 kW=1 PF=0.95 Daily=Shape_84
New Load.LOAD85 Phases=1 Bus1=1401.2 kV=0.23 kW=1 PF=0.95 Daily=Shape_85
New Load.LOAD86 Phases=1 Bus1=1403.3 kV=0.23 kW=1 PF=0.95 Daily=Shape_86
New Load.LOAD87 Phases=1 Bus1=1421.1 kV=0.23 kW=1 PF=0.95 Daily=Shape_87
New Load.LOAD88 Phases=1 Bus1=1428.2 kV=0.23 kW=1 PF=0.95 Daily=Shape_88
New Load.LOAD89 Phases=1 Bus1=1432.2 kV=0.23 kW=1 PF=0.95 Daily=Shape_89
New Load.LOAD90 Phases=1 Bus1=1440.1 kV=0.23 kW=1 PF=0.95 Daily=Shape_90
New Load.LOAD91 Phases=1 Bus1=1448.1 kV=0.23 kW=1 PF=0.95 Daily=Shape_91
New Load.LOAD92 Phases=1 Bus1=1450.2 kV=0.23 kW=1 PF=0.95 Daily=Shape_92
New Load.LOAD93 Phases=1 Bus1=1451.2 kV=0.23 kW=1 PF=0.95 Daily=Shape_93
New Load.LOAD94 Phases=1 Bus1=1460.1 kV=0.23 kW=1 PF=0.95 Daily=Shape_94
New Load.LOAD95 Phases=1 Bus1=1464.1 kV=0.23 kW=1 PF=0.95 Daily=Shape_95
New Load.LOAD96 Phases=1 Bus1=1475.2 kV=0.23 kW=1 PF=0.95 Daily=Shape_96
New Load.LOAD97 Phases=1 Bus1=1478.1 kV=0.23 kW=1 PF=0.95 Daily=Shape_97
New Load.LOAD98 Phases=1 Bus1=1489.1 kV=0.23 kW=1 PF=0.95 Daily=Shape_98
New Load.LOAD99 Phases=1 Bus1=1493.1 kV=0.23 kW=1 PF=0.95 Daily=Shape_99
New Load.LOAD100 Phases=1 Bus1=1500.3 kV=0.23 kW=1 PF=0.95 Daily=Shape_100
New Load.LOAD101 Phases=1 Bus1=1501.2 kV=0.23 kW=1 PF=0.95 Daily=Shape_101
New Load.LOAD102 Phases=1 Bus1=1503.3 kV=0.23 kW=1 PF=0.95 Daily=Shape_102
New Load.LOAD103 Phases=1 Bus1=1507.3 kV=0.23 kW=1 PF=0.95 Daily=Shape_103
New Load.LOAD104 Phases=1 Bus1=1511.3 kV=0.23 kW=1 PF=0.95 Daily=Shape_104
New Load.LOAD105 Phases=1 Bus1=1512.3 kV=0.23 kW=1 PF=0.95 Daily=Shape_105
New Load.LOAD106 Phases=1 Bus1=1514.1 kV=0.23 kW=1 PF=0.95 Daily=Shape_106
New Load.LOAD107 Phases=1 Bus1=1520.2 kV=0.23 kW=1 PF=0.95 Daily=Shape_107
New Load.LOAD108 Phases=1 Bus1=1526.2 kV=0.23 kW=1 PF=0.95 Daily=Shape_108
New Load.LOAD109 Phases=1 Bus1=1555.1 kV=0.23 kW=1 PF=0.95 Daily=Shape_109
New Load.LOAD110 Phases=1 Bus1=1560.1 kV=0.23 kW=1 PF=0.95 Daily=Shape_110
New Load.LOAD111 Phases=1 Bus1=1566.3 kV=0.23 kW=1 PF=0.95 Daily=Shape_111
New Load.LOAD112 Phases=1 Bus1=1572.2 kV=0.23 kW=1 PF=0.95 Daily=Shape_112
New Load.LOAD113 Phases=1 Bus1=1573.3 kV=0.23 kW=1 PF=0.95 Daily=Shape_113
New Load.LOAD114 Phases=1 Bus1=1576.2 kV=0.23 kW=1 PF=0.95 Daily=Shape_114
New Load.LOAD115 Phases=1 Bus1=1604.2 kV=0.23 kW=1 PF=0.95 Daily=Shape_115
